data_set
_cell_length_a                         0.7044854496E+01
_cell_length_b                         0.7192648560E+01
_cell_length_c                         0.7191656398E+01
_cell_angle_alpha                      0.9593153407E+02
_cell_angle_beta                       0.9001434853E+02
_cell_angle_gamma                      0.9000045301E+02
_cell_volume                           0.3624585634E+03
loop_
  _atom_site_label                   
  _atom_site_fract_x                 
  _atom_site_fract_y                 
  _atom_site_fract_z                 
  La    0.8760862375E+00    0.8351229345E+00    0.8953548137E+00
  La    0.3758857238E+00    0.6650647433E+00    0.1048768680E+00
  La    0.1303389843E+00    0.3720191403E+00    0.6814435372E+00
  La    0.6303135605E+00    0.1285710297E+00    0.3182957829E+00
  Mo    0.1686707934E+00    0.2054063040E+00    0.2025669406E+00
  Mo    0.6687538057E+00    0.2951841370E+00    0.7974731801E+00
  Mo    0.8384462064E+00    0.6195868000E+00    0.3107279449E+00
  Mo    0.3386795499E+00    0.8802112404E+00    0.6891701199E+00
   O    0.3161743706E+00    0.2865152646E+00    0.4020815368E+00
   O    0.8161182245E+00    0.2145163269E+00    0.5979108448E+00
   O    0.6808901167E+00    0.8060677120E+00    0.1960624180E+00
   O    0.1808076406E+00    0.6940033604E+00    0.8045822575E+00
   O    0.9564453997E+00    0.7201160893E-01    0.1974440335E+00
   O    0.4566485051E+00    0.4285038299E+00    0.8015265612E+00
   O    0.2617273729E-01    0.7001021675E+00    0.1615790089E+00
   O    0.5260726074E+00    0.8002087182E+00    0.8390885418E+00
   O    0.3325685880E+00    0.1016840500E+01    0.1351743685E+00
   O    0.1323222403E+00    0.3657579746E-01    0.7505536548E+00
   O    0.8326956435E+00    0.4832846462E+00    0.8661504444E+00
   O    0.6324225382E+00    0.4629118529E+00    0.2486785070E+00
   O    0.1892900742E+00    0.3587368732E+00    0.1027121765E+01
   O    0.8366323976E+00    0.7290346973E+00    0.5401503842E+00
   O    0.3367561941E+00    0.7689280749E+00    0.4604321552E+00
   O    0.6883944293E+00    0.1409498683E+00   -0.2776535497E-01
   O    0.9912671294E+00    0.4145996672E+00    0.3554719008E+00
   O    0.4911463019E+00    0.1085042705E+01    0.6438477853E+00
_chemical_formula_analytical              'La4Mo4 O18'                                                                                        
_symmetry_Int_Tables_number               1
_symmetry_space_group_name_H-M        'P 1'

loop_
  _symmetry_equiv_pos_as_xyz           
  +x,+y,+z
