data_set
_cell_length_a                         0.7192601723E+01
_cell_length_b                         0.7190744029E+01
_cell_length_c                         0.7043920126E+01
_cell_angle_alpha                      0.9000000000E+02
_cell_angle_beta                       0.9000000000E+02
_cell_angle_gamma                      0.8405719468E+02
_cell_volume                           0.3623547516E+03
loop_
  _atom_site_label                   
  _atom_site_fract_x                 
  _atom_site_fract_y                 
  _atom_site_fract_z                 
  La    0.8714726447E+00    0.8188042963E+00    0.8695097180E+00
  La    0.3350035733E+00    0.6048080021E+00    0.1241092766E+00
  La    0.1649964267E+00    0.3951919979E+00    0.6241092766E+00
  La    0.6285273553E+00    0.1811957037E+00    0.3695097180E+00
  Mo    0.1198970014E+00    0.1893094651E+00    0.1614911819E+00
  Mo    0.7053193563E+00    0.2979507332E+00    0.8310666809E+00
  Mo    0.7946806437E+00    0.7020492668E+00    0.3310666809E+00
  Mo    0.3801029986E+00    0.8106905349E+00    0.6614911819E+00
   O    0.3063297747E+00    0.3038630382E+00    0.3193046533E+00
   O    0.7865984836E+00    0.9866408340E-01    0.6834815303E+00
   O    0.7134015164E+00    0.9013359166E+00    0.1834815303E+00
   O    0.1936702253E+00    0.6961369618E+00    0.8193046533E+00
   O    0.9634217099E+00    0.2507502741E+00    0.3677545287E+00
   O    0.5169086379E+00    0.3660348043E+00    0.6673292386E+00
   O   -0.1690863787E-01    0.6339651957E+00    0.1673292386E+00
   O    0.5365782901E+00    0.7492497259E+00    0.8677545287E+00
   O    0.2302206427E+00    0.9601879974E+00    0.1636107148E+00
   O    0.2697793573E+00    0.3981200262E-01    0.6636107148E+00
   O    0.8590169567E+00    0.4731911622E+00    0.8113110535E+00
   O    0.6409830433E+00    0.5268088378E+00    0.3113110535E+00
   O    0.2000230273E+00    0.3389931586E+00    0.9738951466E+00
   O    0.9280848906E+00    0.6985447554E+00    0.5431446154E+00
   O    0.2999769727E+00    0.6610068414E+00    0.4738951466E+00
   O    0.5719151094E+00    0.3014552446E+00    0.4314461542E-01
   O   -0.8508519033E-01    0.1439134720E+00    0.8993661541E-02
   O    0.5850851903E+00    0.8560865280E+00    0.5089936615E+00
_chemical_formula_analytical              'La4Mo4 O18'                                                                                        
_symmetry_Int_Tables_number               4
_symmetry_space_group_name_H-M        'P 2_1'

loop_
  _symmetry_equiv_pos_as_xyz           
  +x,+y,+z
  1/2-x,-y,1/2+z
