data_set
_cell_length_a                         0.7190884904E+01
_cell_length_b                         0.7043999128E+01
_cell_length_c                         0.7193512131E+01
_cell_angle_alpha                      0.9000000000E+02
_cell_angle_beta                       0.9593553164E+02
_cell_angle_gamma                      0.9000000000E+02
_cell_volume                           0.3624165676E+03
loop_
  _atom_site_label                   
  _atom_site_fract_x                 
  _atom_site_fract_y                 
  _atom_site_fract_z                 
  La    0.8951737579E+00    0.8758607730E+00    0.8350092284E+00
  La    0.3186502180E+00    0.6303718823E+00    0.1283386439E+00
  La    0.1048262421E+00    0.3758607730E+00    0.6649907716E+00
  La    0.6813497820E+00    0.1303718823E+00    0.3716613561E+00
  Mo    0.2022588926E+00    0.1687816655E+00    0.2052578833E+00
  Mo    0.6894816061E+00    0.3385104591E+00    0.8802652999E+00
  Mo    0.7977411074E+00    0.6687816655E+00    0.2947421167E+00
  Mo    0.3105183939E+00    0.8385104591E+00    0.6197347001E+00
   O    0.4017040812E+00    0.3163837055E+00    0.2861804941E+00
   O    0.8041126629E+00    0.1807365729E+00    0.6938536666E+00
   O    0.5982959188E+00    0.8163837055E+00    0.2138195059E+00
   O    0.1958873371E+00    0.6807365729E+00    0.8061463334E+00
   O    0.1027001843E+01    0.1888178769E+00    0.3589197604E+00
   O    0.4603460413E+00    0.3365154979E+00    0.7699940756E+00
   O   -0.2700184298E-01    0.6888178769E+00    0.1410802396E+00
   O    0.5396539587E+00    0.8365154979E+00    0.7300059244E+00
   O    0.1983419790E+00    0.9567587168E+00    0.7177250622E-01
   O    0.1609701766E+00    0.2615146428E-01    0.7000487459E+00
   O    0.8390298234E+00    0.5261514643E+00    0.7999512541E+00
   O    0.8016580210E+00    0.4567587168E+00    0.4282274938E+00
   O    0.1340872293E+00    0.3326499526E+00    0.1016968864E+01
   O    0.8659127707E+00    0.8326499526E+00    0.4830311361E+00
   O    0.2491598115E+00    0.6322702449E+00    0.4632630609E+00
   O    0.7508401885E+00    0.1322702449E+00    0.3673693912E-01
   O    0.6442869322E+00    0.4911911883E+00    0.1085138926E+01
   O    0.3557130678E+00    0.9911911883E+00    0.4148610741E+00
_chemical_formula_analytical              'La4Mo4 O18'                                                                                        
_symmetry_Int_Tables_number               4
_symmetry_space_group_name_H-M        'P 2_1'

loop_
  _symmetry_equiv_pos_as_xyz           
  +x,+y,+z
  -x,1/2+y,1/2-z
