data_set
_cell_length_a                         0.7190243867E+01
_cell_length_b                         0.7044483441E+01
_cell_length_c                         0.7192839659E+01
_cell_angle_alpha                      0.9001216909E+02
_cell_angle_beta                       0.8408947388E+02
_cell_angle_gamma                      0.8989650126E+02
_cell_volume                           0.3623910840E+03
loop_
  _atom_site_label                   
  _atom_site_fract_x                 
  _atom_site_fract_y                 
  _atom_site_fract_z                 
  La    0.8181799540E+00    0.8687401433E+00    0.8706104425E+00
  La    0.3952835880E+00    0.6239329354E+00    0.1645421908E+00
  La    0.1808453943E+00    0.3703115549E+00    0.6270117630E+00
  La    0.6049634321E+00    0.1241971948E+00    0.3348535384E+00
  Mo    0.1892695783E+00    0.1612472252E+00    0.1196057542E+00
  Mo    0.7023129192E+00    0.3308239103E+00    0.7948120598E+00
  Mo    0.8103952789E+00    0.6616305327E+00    0.3805053027E+00
  Mo    0.2978463859E+00    0.8313737246E+00    0.7045125541E+00
   O    0.3053038644E+00    0.3193523630E+00    0.3056214929E+00
   O    0.9019241149E+00    0.1835780503E+00    0.7129774833E+00
   O    0.6968340982E+00    0.8190804978E+00    0.1935762427E+00
   O    0.9869788642E-01    0.6838273265E+00    0.7851036857E+00
   O    0.9608949696E+00    0.1645051425E+00    0.2316375933E+00
   O    0.5267790517E+00    0.3113278954E+00    0.6414082044E+00
   O    0.4025053657E-01    0.6626435382E+00    0.2719603332E+00
   O    0.4726967680E+00    0.8110810893E+00    0.8587741972E+00
   O    0.3393324860E+00    0.9737795653E+00    0.2001305541E+00
   O    0.3009678082E+00    0.4395165646E-01    0.5721317537E+00
   O    0.6977790596E+00    0.5426107651E+00    0.9289594570E+00
   O    0.6616298766E+00    0.4738195935E+00    0.3002932866E+00
   O    0.2501024875E+00    0.3673161804E+00    0.9630999073E+00
   O    0.7480892505E+00    0.8681998373E+00    0.5368774121E+00
   O    0.3664698820E+00    0.6679992436E+00    0.5159754952E+00
   O    0.6349328163E+00    0.1665324194E+00   -0.1711739421E-01
   O    0.1433586958E+00    0.8264426522E-02   -0.8439053740E-01
   O    0.8548598169E+00    0.5098731882E+00    0.5865272273E+00
_chemical_formula_analytical              'La4Mo4 O18'                                                                                        
_symmetry_Int_Tables_number               1
_symmetry_space_group_name_H-M        'P 1'

loop_
  _symmetry_equiv_pos_as_xyz           
  +x,+y,+z
