data_set
_cell_length_a                         0.7044849347E+01
_cell_length_b                         0.7192856720E+01
_cell_length_c                         0.7189373192E+01
_cell_angle_alpha                      0.8410240053E+02
_cell_angle_beta                       0.9000000000E+02
_cell_angle_gamma                      0.9000000000E+02
_cell_volume                           0.3623759570E+03
loop_
  _atom_site_label                   
  _atom_site_fract_x                 
  _atom_site_fract_y                 
  _atom_site_fract_z                 
  La    0.8697905403E+00    0.8719649872E+00    0.8189880271E+00
  La    0.3697905403E+00    0.6280350128E+00    0.1810119729E+00
  La    0.1241641431E+00    0.3351988901E+00    0.6048384753E+00
  La    0.6241641431E+00    0.1648011099E+00    0.3951615247E+00
  Mo    0.1613367650E+00    0.1197029247E+00    0.1893138749E+00
  Mo    0.6613367650E+00    0.3802970753E+00    0.8106861251E+00
  Mo    0.8312306243E+00    0.7049548855E+00    0.2980224458E+00
  Mo    0.3312306243E+00    0.7950451145E+00    0.7019775542E+00
   O    0.3192626143E+00    0.3060089722E+00    0.3039437084E+00
   O    0.8192626143E+00    0.1939910278E+00    0.6960562916E+00
   O    0.6836702465E+00    0.7858652650E+00    0.9862246178E-01
   O    0.1836702465E+00    0.7141347350E+00    0.9013775382E+00
   O    0.9738842562E+00    0.2001027050E+00    0.3391520377E+00
   O    0.4738842562E+00    0.2998972950E+00    0.6608479623E+00
   O    0.4347232310E-01    0.5718848677E+00    0.3014911339E+00
   O    0.5434723231E+00    0.9281151323E+00    0.6985088661E+00
   O    0.3675658697E+00    0.9631452785E+00    0.2501700994E+00
   O    0.1675647511E+00   -0.1658920013E-01    0.6337972597E+00
   O    0.8675658697E+00    0.5368547215E+00    0.7498299006E+00
   O    0.6675647511E+00    0.5165892001E+00    0.3662027403E+00
   O    0.1630378817E+00    0.2300053643E+00    0.9601979758E+00
   O    0.8115557290E+00    0.8587978682E+00    0.4732677469E+00
   O    0.3115557290E+00    0.6412021318E+00    0.5267322531E+00
   O    0.6630378817E+00    0.2699946357E+00    0.3980202423E-01
   O    0.8464255649E-02   -0.8503406719E-01    0.1441000326E+00
   O    0.5084642556E+00    0.5850340672E+00    0.8558999674E+00
_chemical_formula_analytical              'La4Mo4 O18'                                                                                        
_symmetry_Int_Tables_number               4
_symmetry_space_group_name_H-M        'P 2_1'

loop_
  _symmetry_equiv_pos_as_xyz           
  +x,+y,+z
  1/2+x,1/2-y,-z
