data_o2-La2Mo2O9
_symmetry_space_group_name_H-M   'P 1'
_cell_length_a   7.15470000
_cell_length_b   7.15470000
_cell_length_c   7.15470000
_cell_angle_alpha   90.00000000
_cell_angle_beta   90.00000000
_cell_angle_gamma   90.00000000
_symmetry_Int_Tables_number   1
_chemical_formula_structural   La2Mo2O9
_chemical_formula_sum   'La4 Mo4 O18'
_cell_volume   366.24717618
_cell_formula_units_Z   2
loop_
 _symmetry_equiv_pos_site_id
 _symmetry_equiv_pos_as_xyz
  1  'x, y, z'
loop_
 _atom_site_type_symbol
 _atom_site_label
 _atom_site_symmetry_multiplicity
 _atom_site_fract_x
 _atom_site_fract_y
 _atom_site_fract_z
 _atom_site_occupancy
  La  La0  1  0.8529  0.8529  0.8529  1
  La  La1  1  0.3529  0.6471  0.1471  1
  La  La2  1  0.1471  0.3529  0.6471  1
  La  La3  1  0.6471  0.1471  0.3529  1
  Mo  Mo4  1  0.1695  0.1695  0.1695  1
  Mo  Mo5  1  0.6695  0.3305  0.8305  1
  Mo  Mo6  1  0.8305  0.6695  0.3305  1
  Mo  Mo7  1  0.3305  0.8305  0.6695  1
  O  O8   1  0.1835	 0.6835  0.8165  1
  O  O9   1  0.3165	 0.3165  0.3165  1
  O  O10  1  0.6835	 0.8165  0.1835  1
  O  O11  1  0.8165	 0.1835  0.6835  1
  O  O12  1  0.0072	 0.6810  0.1640  1
  O  O13  1  0.3360	 0.9928  0.1810  1
  O  O14  1  0.8190	 0.8360  0.5072  1
  O  O15  1  0.8360	 0.5072  0.8190  1
  O  O16  1  0.5072	 0.8190  0.8360  1
  O  O17  1  0.9928  0.1810  0.3360  1
  O  O18  1  0.6640	 0.4928  0.3190  1
  O  O19  1  0.1810	 0.3360  0.9928  1
  O  O20  1  0.4928	 0.3190  0.6640  1
  O  O21  1  0.1640	 0.0072  0.6810  1
  O  O22  1  0.9110	 0.6420  0.5510  1
  O  O23  1  0.5890	 0.3580  0.0510  1
  O  O24  1  0.4110	 0.8580  0.4490  1
  O  O25  1  0.0890	 0.1420  0.9490  1
  
  