data_La2Mo2O9 disordered Model 1L (x2x2x1 model 1)
_symmetry_space_group_name_H-M   'P 1'
_cell_length_a   14.30940000
_cell_length_b   14.30940000
_cell_length_c   7.15470000
_cell_angle_alpha   90.00000000
_cell_angle_beta   90.00000000
_cell_angle_gamma   90.00000000
_symmetry_Int_Tables_number   1
_chemical_formula_structural   La2Mo2O9
_chemical_formula_sum   'La16 Mo16 O72'
_cell_volume   1464,988704737292
_cell_formula_units_Z   8
loop_
 _symmetry_equiv_pos_site_id
 _symmetry_equiv_pos_as_xyz
  1  'x, y, z'
loop_
 _atom_site_label
 _atom_site_type_symbol
 _atom_site_symmetry_multiplicity
 _atom_site_fract_x
 _atom_site_fract_y
 _atom_site_fract_z
 _atom_site_occupancy
 La0	La	1	0.42645	0.42645	0.8529	1
 La1	La	1	0.17645	0.32355	0.1471	1
 La2	La	1	0.07355	0.17645	0.6471	1
 La3	La	1	0.32355	0.07355	0.3529	1
 La4	La	1	0.92645	0.42645	0.8529	1
 La5	La	1	0.67645	0.32355	0.1471	1
 La6	La	1	0.57355	0.17645	0.6471	1
 La7	La	1	0.82355	0.07355	0.3529	1
 La8	La	1	0.42645	0.92645	0.8529	1
 La9	La	1	0.17645	0.82355	0.1471	1
 La10	La	1	0.07355	0.67645	0.6471	1
 La11	La	1	0.32355	0.57355	0.3529	1
 La12	La	1	0.92645	0.92645	0.8529	1
 La13	La	1	0.67645	0.82355	0.1471	1
 La14	La	1	0.57355	0.67645	0.6471	1
 La15	La	1	0.82355	0.57355	0.3529	1
 Mo16	Mo	1	0.08475	0.08475	0.1695	1
 Mo17	Mo	1	0.33475	0.16525	0.8305	1
 Mo18	Mo	1	0.41525	0.33475	0.3305	1
 Mo19	Mo	1	0.16525	0.41525	0.6695	1
 Mo20	Mo	1	0.58475	0.08475	0.1695	1
 Mo21	Mo	1	0.83475	0.16525	0.8305	1
 Mo22	Mo	1	0.91525	0.33475	0.3305	1
 Mo23	Mo	1	0.66525	0.41525	0.6695	1
 Mo24	Mo	1	0.08475	0.58475	0.1695	1
 Mo25	Mo	1	0.33475	0.66525	0.8305	1
 Mo26	Mo	1	0.41525	0.83475	0.3305	1
 Mo27	Mo	1	0.16525	0.91525	0.6695	1
 Mo28	Mo	1	0.58475	0.58475	0.1695	1
 Mo29	Mo	1	0.83475	0.66525	0.8305	1
 Mo30	Mo	1	0.91525	0.83475	0.3305	1
 Mo31	Mo	1	0.66525	0.91525	0.6695	1
 O32	O	1	0.09175	0.34175	0.8165	1
 O33	O	1	0.15825	0.15825	0.3165	1
 O34	O	1	0.34175	0.40825	0.1835	1
 O35	O	1	0.40825	0.09175	0.6835	1
 O36	O	1	0.59175	0.34175	0.8165	1
 O37	O	1	0.65825	0.15825	0.3165	1
 O38	O	1	0.84175	0.40825	0.1835	1
 O39	O	1	0.90825	0.09175	0.6835	1
 O40	O	1	0.09175	0.84175	0.8165	1
 O41	O	1	0.15825	0.65825	0.3165	1
 O42	O	1	0.34175	0.90825	0.1835	1
 O43	O	1	0.40825	0.59175	0.6835	1
 O44	O	1	0.59175	0.84175	0.8165	1
 O45	O	1	0.65825	0.65825	0.3165	1
 O46	O	1	0.84175	0.90825	0.1835	1
 O47	O	1	0.90825	0.59175	0.6835	1
 O48	O	1	0.0905	0.168	0.9928	1
 O49	O	1	0.9964	0.0905	0.336	1
 O50	O	1	0.168	0.9964	0.181	1
 O51	O	1	0.4095	0.418	0.5072	1
 O52	O	1	0.332	0.2464	0.319	1
 O53	O	1	0.5036	0.3405	0.164	1
 O54	O	1	0.3405	0.082	0.0072	1
 O55	O	1	0.418	0.2536	0.819	1
 O56	O	1	0.2464	0.1595	0.664	1
 O57	O	1	0.2536	0.4095	0.836	1
 O58	O	1	0.1595	0.332	0.4928	1
 O59	O	1	0.082	0.5036	0.681	1
 O60	O	1	0.0036	0.3405	0.164	1
 O61	O	1	0.9095	0.418	0.5072	1
 O62	O	1	0.832	0.2464	0.319	1
 O63	O	1	0.4964	0.0905	0.336	1
 O64	O	1	0.5905	0.168	0.9928	1
 O65	O	1	0.668	0.9964	0.181	1
 O66	O	1	0.7536	0.4095	0.836	1
 O67	O	1	0.6595	0.332	0.4928	1
 O68	O	1	0.582	0.5036	0.681	1
 O69	O	1	0.8405	0.082	0.0072	1
 O70	O	1	0.918	0.2536	0.819	1
 O71	O	1	0.7464	0.1595	0.664	1
 O72	O	1	0.3405	0.582	0.0072	1
 O73	O	1	0.418	0.7536	0.819	1
 O74	O	1	0.2464	0.6595	0.664	1
 O75	O	1	0.168	0.4964	0.181	1
 O76	O	1	0.0905	0.668	0.9928	1
 O77	O	1	0.9964	0.5905	0.336	1
 O78	O	1	0.4095	0.918	0.5072	1
 O79	O	1	0.332	0.7464	0.319	1
 O80	O	1	0.5036	0.8405	0.164	1
 O81	O	1	0.082	0.0036	0.681	1
 O82	O	1	0.2536	0.9095	0.836	1
 O83	O	1	0.1595	0.832	0.4928	1
 O84	O	1	0.668	0.4964	0.181	1
 O85	O	1	0.4964	0.5905	0.336	1
 O86	O	1	0.5905	0.668	0.9928	1
 O87	O	1	0.8405	0.582	0.0072	1
 O88	O	1	0.918	0.7536	0.819	1
 O89	O	1	0.7464	0.6595	0.664	1
 O90	O	1	0.582	0.0036	0.681	1
 O91	O	1	0.7536	0.9095	0.836	1
 O92	O	1	0.6595	0.832	0.4928	1
 O93	O	1	0.0036	0.8405	0.164	1
 O94	O	1	0.9095	0.918	0.5072	1
 O95	O	1	0.832	0.7464	0.319	1
 O96	O	1	0.0125	0.0125	0.025	1
 O97	O	1	0.2625	0.2375	0.975	1
 O98	O	1	0.9875	0.2625	0.475	1
 O99	O	1	0.7375	0.4875	0.525	1
 O100	O	1	0.2625	0.7375	0.975	1
 O101	O	1	0.4875	0.7625	0.475	1
 O102	O	1	0.5125	0.5125	0.025	1
 O103	O	1	0.7375	0.9875	0.525	1
